9

  N  62.248000  37.833000  49.212000
  C  61.313000  37.473000  50.268000
  C  60.054000  38.337000  50.332000
  O  58.989000  37.863000  50.695000
  C  62.233446  37.361153  51.497581
  C  62.312743  35.885817  51.931971
  C  63.233190  35.773971  53.161552
  O  62.773607  35.870508  54.265845
  O  64.635559  35.555073  52.987355
