10

  N  36.553000  36.333000  43.138000
  C  37.577000  36.733000  44.095000
  C  38.801000  37.253000  43.344000
  O  39.218000  36.694000  42.341000
  C  37.973039  35.473818  44.888230
  C  39.508012  35.410998  44.995521
  N  40.122021  36.028492  45.974191
  C  41.399813  35.796682  45.802106
  C  40.394189  35.334687  43.993290
  N  41.577143  35.414061  44.550443
