10

  N  61.583000  33.040000  35.316000
  C  62.558000  33.059000  34.230000
  C  63.094000  34.457000  34.023000
  O  64.265000  34.665000  33.735000
  C  61.979466  32.272021  33.039386
  C  61.510688  30.890282  33.531977
  C  60.344380  30.411832  32.647437
  C  59.875602  29.030093  33.140028
  C  58.709294  28.551642  32.255489
  N  58.240515  27.169904  32.748080
